1

   Abaqus 6.14-1                                  Date 16-Jul-2018   Time 17:03:10
   For use by Supplied By SSQ under license from Dassault Systemes or its subsidiary.



                         The Abaqus Software is a product of:

                           Dassault Systemes Simulia Corp.
                                 Rising Sun Mills
                                 166 Valley Street
                           Providence, RI 02909-2499, USA
 


                   The Abaqus Software is available only under license
                   from Dassault Systemes or its subsidiary and may be
                   used or reproduced only in accordance with the terms
                   of such license.
 
                          On machine miguel-K56CB 
                          you are authorized to run
                          Abaqus/Standard until 31-Dec-2055

                          Your site id is:  


 
                    For assistance or any other information you may
                    obtain contact information for your local office
                    from the world wide web at:

                      http://www.3ds.com/products/simulia/locations/

 
                * * * * * * * * * * * * * * * * * * * * * * * * * * * * * * 
                *                                                         * 
                *                   *****************                     * 
                *                   *  N O T I C E  *                     * 
                *                   *****************                     * 
                *                                                         * 
                *                                                         * 
                *                    Abaqus 6.14-1                        * 
                *                                                         * 
                *          BUILD ID: 2014_06_04-20.37.49 134264           * 
                *                                                         * 
                *                                                         * 
                *  Please make sure you are using release 6.14 manuals    * 
                *  plus the notes accompanying this release.              * 
                *                                                         * 
                *                                                         * 
                *                                                         * 
                *                                                         * 
                * * * * * * * * * * * * * * * * * * * * * * * * * * * * * * 


 



     PROCESSING PART, INSTANCE, AND ASSEMBLY INFORMATION
   *******************************************************


     END PROCESSING PART, INSTANCE, AND ASSEMBLY INFORMATION
   ***********************************************************




     OPTIONS BEING PROCESSED
   ***************************


  *HEADING
           MONOTONIC UNIAXIAL DISPL. LOADING. AXISYMMETRIC MODEL                                                                                                                                                                                                          
  *NODE
  *NSET,NSET=ALL, GENERATE
  *NSET,NSET=TOP
  *NSET, NSET=LEFT
  *NSET, NSET=BOT
  *ELEMENT, TYPE=CPS4R, ELSET=ALLE
  *MATERIAL, NAME=MAT
  *USER MATERIAL, CONSTANTS=2
  *DEPVAR
  *SOLID SECTION, ELSET=ALLE, MATERIAL=MAT
  *BOUNDARY
  *BOUNDARY
  *SOLID SECTION, ELSET=ALLE, MATERIAL=MAT
  *OUTPUT, FIELD, FREQ=10
  *OUTPUT, HISTORY
  *ELEMENT OUTPUT, ELSET=ALLE
  *ELEMENT OUTPUT, ELSET=ALLE
  *OUTPUT, FIELD, FREQ=10
  *OUTPUT, HISTORY
  *ELEMENT OUTPUT, ELSET=ALLE
  *ELEMENT OUTPUT, ELSET=ALLE
  *OUTPUT, FIELD, FREQ=10
  *OUTPUT, HISTORY
  *ELEMENT OUTPUT, ELSET=ALLE
  *ELEMENT OUTPUT, ELSET=ALLE

 ***ERROR: 1 elements have been defined with zero hour glass stiffness. You may 
           use *hourglass stiffness or change the element type. The elements 
           have been identified in element set ErrElemZeroHourGlassStiffness.
 ***NOTE: DUE TO AN INPUT ERROR THE ANALYSIS PRE-PROCESSOR HAS BEEN UNABLE TO 
          INTERPRET SOME DATA.  SUBSEQUENT ERRORS MAY BE CAUSED BY THIS OMISSION
  *STEP,  AMPLITUDE=RAMP, NLGEOM, INC=20000
  *OUTPUT, FIELD, FREQ=10
  *STEP,  AMPLITUDE=RAMP, NLGEOM, INC=20000
  *STEP,  AMPLITUDE=RAMP, NLGEOM, INC=20000
  *STATIC
  *BOUNDARY
  *OUTPUT, FIELD, FREQ=10
  *NODE OUTPUT
  *ELEMENT OUTPUT, ELSET=ALLE
  *NODE FILE, GLOBAL=YES, FREQ=10
  *EL PRINT,  FREQ=0
  *NODE PRINT, GLOBAL=YES, FREQ=0
  *OUTPUT, HISTORY
  *ELEMENT OUTPUT, ELSET=ALLE
  *END STEP
  *BOUNDARY
  *STEP,  AMPLITUDE=RAMP, NLGEOM, INC=20000
  *STATIC
  *BOUNDARY
  *END STEP



                            P R O B L E M   S I Z E


          NUMBER OF ELEMENTS IS                                     1
          NUMBER OF NODES IS                                        4
          NUMBER OF NODES DEFINED BY THE USER                       4
          TOTAL NUMBER OF VARIABLES IN THE MODEL                    8
          (DEGREES OF FREEDOM PLUS MAX NO. OF ANY LAGRANGE MULTIPLIER
           VARIABLES. INCLUDE *PRINT,SOLVE=YES TO GET THE ACTUAL NUMBER.)





          THE PROGRAM HAS DISCOVERED     1 FATAL ERRORS

               ** EXECUTION IS TERMINATED **



                              END OF USER INPUT PROCESSING



     JOB TIME SUMMARY
       USER TIME (SEC)      =  0.16000    
       SYSTEM TIME (SEC)    =  2.00000E-02
       TOTAL CPU TIME (SEC) =  0.18000    
       WALLCLOCK TIME (SEC) =          1
