 Abaqus/Standard 6.14-1                  DATE 03-out-2018 TIME 22:30:09
 SUMMARY OF JOB INFORMATION:
 STEP  INC ATT SEVERE EQUIL TOTAL  TOTAL      STEP       INC OF       DOF    IF
               DISCON ITERS ITERS  TIME/    TIME/LPF    TIME/LPF    MONITOR RIKS
               ITERS               FREQ
   1     1   1U    0     4     4  0.00       0.00       0.1000    
   1     1   2U    0     4     4  0.00       0.00       0.02500   
   1     1   3U    0     4     4  0.00       0.00       0.006250  
   1     1   4U    0     4     4  0.00       0.00       0.001563  
   1     1   5U    0     4     4  0.00       0.00       0.0003906 
                          
 THE ANALYSIS HAS NOT BEEN COMPLETED
