 Abaqus/Standard 6.14-1                  DATE 25-Jul-2018 TIME 15:48:43
 SUMMARY OF JOB INFORMATION:
 STEP  INC ATT SEVERE EQUIL TOTAL  TOTAL      STEP       INC OF       DOF    IF
               DISCON ITERS ITERS  TIME/    TIME/LPF    TIME/LPF    MONITOR RIKS
               ITERS               FREQ
   1     1   1     0     2     2  0.100      0.100      0.1000    
   1     2   1     0     1     1  0.200      0.200      0.1000    
   1     3   1     0     1     1  0.300      0.300      0.1000    
   1     4   1     0     1     1  0.400      0.400      0.1000    
   1     5   1     0     1     1  0.500      0.500      0.1000    
   1     6   1U    0     4     4  0.500      0.500      0.1000    
   1     6   2U    0     4     4  0.500      0.500      0.02500   
   1     6   3U    0     4     4  0.500      0.500      0.006250  
   1     6   4U    0     4     4  0.500      0.500      0.001563  
   1     6   5U    0     4     4  0.500      0.500      0.0003906 
                          
 THE ANALYSIS HAS NOT BEEN COMPLETED
