 Abaqus/Standard 6.14-5                  DATE 28-Out-2018 TIME 16:13:37
 SUMMARY OF JOB INFORMATION:
 STEP  INC ATT SEVERE EQUIL TOTAL  TOTAL      STEP       INC OF       DOF    IF
               DISCON ITERS ITERS  TIME/    TIME/LPF    TIME/LPF    MONITOR RIKS
               ITERS               FREQ
   1     1   1     0     1     1  0.200      0.200      0.2000    
   1     2   1     0     1     1  0.400      0.400      0.2000    
   1     3   1     0     1     1  0.600      0.600      0.2000    
   1     4   1     0     1     1  0.800      0.800      0.2000    
   1     5   1     0     1     1  1.00       1.00       0.2000    
   1     6   1     0     1     1  1.20       1.20       0.2000    
   1     7   1     0     1     1  1.40       1.40       0.2000    
   1     8   1     0     1     1  1.60       1.60       0.2000    
   1     9   1     0     1     1  1.80       1.80       0.2000    
   1    10   1     0     1     1  2.00       2.00       0.2000    
   1    11   1     0     1     1  2.20       2.20       0.2000    
   1    12   1     0     1     1  2.40       2.40       0.2000    
   1    13   1     0     1     1  2.60       2.60       0.2000    
   1    14   1     0     1     1  2.80       2.80       0.2000    
   1    15   1     0     1     1  3.00       3.00       0.2000    
   1    16   1     0     1     1  3.20       3.20       0.2000    
   1    17   1     0     1     1  3.40       3.40       0.2000    
   1    18   1     0     1     1  3.60       3.60       0.2000    
   1    19   1     0     1     1  3.80       3.80       0.2000    
   1    20   1     0     1     1  4.00       4.00       0.2000    
   1    21   1     0     1     1  4.20       4.20       0.2000    
   1    22   1     0     1     1  4.40       4.40       0.2000    
   1    23   1     0     1     1  4.60       4.60       0.2000    
   1    24   1     0     1     1  4.80       4.80       0.2000    
   1    25   1     0     1     1  5.00       5.00       0.2000    
                          
 THE ANALYSIS HAS COMPLETED SUCCESSFULLY
