*Heading
** Job name: plane_stress Model name: Model-1
** Generated by: Abaqus/CAE 6.14-1
*Preprint, echo=NO, model=NO, history=NO, contact=NO
**
** PARTS
**
*Part, name=Part-1
*End Part
**  
**
** ASSEMBLY
**
*Assembly, name=Assembly
**  
*Instance, name=Part-1-1, part=Part-1
*Node
      1,           0.,           0.
      2,  0.100000001,           0.
      3,  0.200000003,           0.
      4,  0.300000012,           0.
      5,  0.400000006,           0.
      6,          0.5,           0.
      7,  0.600000024,           0.
      8,  0.699999988,           0.
      9,  0.800000012,           0.
     10,  0.899999976,           0.
     11,           1.,           0.
     12,   1.10000002,           0.
     13,   1.20000005,           0.
     14,   1.29999995,           0.
     15,   1.39999998,           0.
     16,          1.5,           0.
     17,   1.60000002,           0.
     18,   1.70000005,           0.
     19,   1.79999995,           0.
     20,   1.89999998,           0.
** ... 841 like lines cut
*Element, type=CPS4R
  1,   1,   2,  43,  42
  2,   2,   3,  44,  43
  3,   3,   4,  45,  44
  4,   4,   5,  46,  45
  5,   5,   6,  47,  46
  6,   6,   7,  48,  47
  7,   7,   8,  49,  48
  8,   8,   9,  50,  49
  9,   9,  10,  51,  50
 10,  10,  11,  52,  51
 11,  11,  12,  53,  52
 12,  12,  13,  54,  53
 13,  13,  14,  55,  54
 14,  14,  15,  56,  55
 15,  15,  16,  57,  56
 16,  16,  17,  58,  57
 17,  17,  18,  59,  58
 18,  18,  19,  60,  59
 19,  19,  20,  61,  60
 20,  20,  21,  62,  61
** ... 780 like lines cut
*Nset, nset=Set-1, generate
   1,  861,    1
*Elset, elset=Set-1, generate
   1,  800,    1
** Section: Plate
*Solid Section, elset=Set-1, material=Steel
,
*End Instance
**  
*Nset, nset=Set-1, instance=Part-1-1, generate
  1,  41,   1
*Elset, elset=Set-1, instance=Part-1-1, generate
  1,  40,   1
*Nset, nset=Set-2, instance=Part-1-1, generate
   1,  821,   41
*Elset, elset=Set-2, instance=Part-1-1, generate
   1,  761,   40
*Elset, elset=_Surf-1_S2, internal, instance=Part-1-1, generate
  40,  800,   40
*Surface, type=ELEMENT, name=Surf-1
_Surf-1_S2, S2
*End Assembly
** 
** MATERIALS
** 
*Material, name=Steel
*Elastic
 2e+11, 0.3
*Plastic
  3.5e+08,  0.
 3.55e+08, 0.1
** ----------------------------------------------------------------
** 
** STEP: Step-1
** 
*Step, name=Step-1, nlgeom=NO
*Static
1., 1., 1e-05, 1.
** 
** BOUNDARY CONDITIONS
** 
** Name: BC-1 Type: Displacement/Rotation
*Boundary
Set-1, 2, 2
Set-1, 6, 6
** Name: BC-2 Type: Displacement/Rotation
*Boundary
Set-2, 1, 1
Set-2, 6, 6
** 
** LOADS
** 
** Name: Distributed load   Type: Pressure
*Dsload
Surf-1, P, -5e+07
** 
** OUTPUT REQUESTS
** 
*Restart, write, frequency=0
** 
** FIELD OUTPUT: F-Output-1
** 
*Output, field
*Node Output
CF, RF, U
*Element Output, directions=YES
LE, PE, PEEQ, PEMAG, S
** 
** HISTORY OUTPUT: H-Output-1
** 
*Output, history, variable=PRESELECT
*End Step
